studies/australian_pv/source/LV3_55bus/Loads.dss
new load.Ld24_LOAD_A phases=1 bus1=B1044.1.4 kv=0.249992666559  vminpu=0.1 vmaxpu=2
new load.Ld248_LOAD_B phases=1 bus1=B2560.2.4 kv=0.249992666559  vminpu=0.1 vmaxpu=2
new load.Ld626_LOAD_C phases=1 bus1=B2055.3.4 kv=0.249992666559  vminpu=0.1 vmaxpu=2
new load.Ld868_LOAD_A phases=1 bus1=B2190.1.4 kv=0.249992666559  vminpu=0.1 vmaxpu=2
new load.Ld1291_LOAD_B phases=1 bus1=B828.2.4 kv=0.249992666559  vminpu=0.1 vmaxpu=2
new load.Ld1446_LOAD_C phases=1 bus1=B260.3.4 kv=0.249992666559  vminpu=0.1 vmaxpu=2
new load.Ld1668_LOAD_A phases=1 bus1=B605.1.4 kv=0.249992666559  vminpu=0.1 vmaxpu=2
new load.Ld1895_LOAD_B phases=1 bus1=B1804.2.4 kv=0.249992666559  vminpu=0.1 vmaxpu=2
new load.Ld1970_LOAD_C phases=1 bus1=B2492.3.4 kv=0.249992666559  vminpu=0.1 vmaxpu=2
new load.Ld2050_LOAD_A phases=1 bus1=B1821.1.4 kv=0.249992666559  vminpu=0.1 vmaxpu=2
new load.Ld2186_LOAD_B phases=1 bus1=B1754.2.4 kv=0.249992666559  vminpu=0.1 vmaxpu=2
new load.Ld2804_LOAD_C phases=1 bus1=B2443.3.4 kv=0.249992666559  vminpu=0.1 vmaxpu=2
